
**** 04/05/18 18:24:22 ******* PSpice Lite (March 2016) ******* ID# 10813 ****

 ** Profile: "SCHEMATIC1-lab3sim"  [ C:\Users\Jonathan\Documents\School\ECE2280\Lab5-PSpiceFiles\SCHEMATIC1\lab3sim.sim ] 


 ****     CIRCUIT DESCRIPTION


******************************************************************************




** Creating circuit file "lab3sim.cir" 
** WARNING: THIS AUTOMATICALLY GENERATED FILE MAY BE OVERWRITTEN BY SUBSEQUENT SIMULATIONS

*Libraries: 
* Profile Libraries :
* Local Libraries :
* From [PSPICE NETLIST] section of C:\Users\Jonathan\AppData\Roaming\SPB_Data\cdssetup\OrCAD_PSpice\17.2.0\PSpice.ini file:
.lib "nomd.lib" 

*Analysis directives: 
.TRAN  0 2000ns 0 
.OPTIONS ADVCONV
.PROBE64 V(alias(*)) I(alias(*)) W(alias(*)) D(alias(*)) NOISE(alias(*)) 
.INC "..\SCHEMATIC1.net" 



**** INCLUDING SCHEMATIC1.net ****
* source LAB5
R_R1         N14635 N14531  100k TC=0,0 
R_R3         N14595 N14531  5k TC=0,0 
C_C2         N14595 N14623  1u  TC=0,0 
V_V1         N14697 0  AC 1
+SIN 0 50m 1k 0 0 0
R_R2         0 N14635  50k TC=0,0 
R_R5         0 N14623  50k TC=0,0 
Q_Q1         N14595 N14635 N14717 Q2N3904
C_C1         N14697 N14635  1u  TC=0,0 
V_V2         N14531 0 15 V
-------------------------$
ERROR -- Expecting keyword STIMULUS, saw V.

R_R4         0 N14717  3k TC=0,0 

**** RESUMING lab3sim.cir ****
.END
